FoamFile
{
	version	2.0;
	format	binary;
	class	volScalarField;
	location	"0/HOT";
	object	p;
	arch	"LSB;label=32;scalar=64";
}
dimensions	[1 -1 -2 0 0 0 0];
internalField	uniform 100000.0;
boundaryField
{
	exchanger
	{
		type	calculated;
		value	uniform 100000.0;
	}
	exchanger_hot_in
	{
		type	calculated;
		value	uniform 100000.0;
	}
	exchanger_hot_out
	{
		type	calculated;
		value	uniform 100000.0;
	}
	pipes
	{
		type	calculated;
		value	uniform 100000.0;
	}
	pipes_baffle_in
	{
		type	calculated;
		value	uniform 100000.0;
	}
	pipes_baffle_out
	{
		type	calculated;
		value	uniform 100000.0;
	}
}
